/*--------------------------------*- C++ -*----------------------------------*\
| =========                 |                                                 |
| \\      /  F ield         | OpenFOAM: The Open Source CFD Toolbox           |
|  \\    /   O peration     | Version:  v2106                                |
|   \\  /    A nd           | Web:      www.OpenFOAM.com                      |
|    \\/     M anipulation  |                                                 |
\*---------------------------------------------------------------------------*/
FoamFile
{{
    version     2.0;
    format      ascii;
    class       dictionary;
    location    "system";
    object      controlDict;
}}
// * * * * * * * * * * * * * * * * * * * * * * * * * * * * * * * * * * * * * //

application     interFoam;

startFrom       latestTime;

startTime       0;

stopAt          endTime;

endTime         {endTime};

deltaT          {deltaT};

writeControl    {writeControl};

writeInterval   {writeInterval};

purgeWrite      0;

writeFormat     binary;

writePrecision  8;

writeCompression off;

timeFormat      general;

timePrecision   6;

runTimeModifiable {runTimeModifiable};

adjustTimeStep  {adjustTimeStep};

maxCo           {maxCo};
maxAlphaCo      {maxAlphaCo};

maxDeltaT       {maxDeltaT};


// ************************************************************************* //
